*Heading
** Job name: Mesh_720 Model name: Model-1
** Generated by: Abaqus/CAE 6.13-2
*Preprint, echo=NO, model=NO, history=NO, contact=NO
**
** PARTS
**
*Part, name=Part-1
*Node
      1,  -4.93834352,  -3.74495029
      2,  -4.94190931,  -3.81753445
      3,  -4.88395834,  -3.82180929
      4,  -4.87683535,   -3.7494874
      5,          -5.,  -3.67076492
      6,          -5.,  -3.81610847
      7,  -4.94012642,  -3.78124237
      8,   -4.9129076,  -3.81931639
      9,  -4.88039684,  -3.78564835
     10,   -4.9075613,  -3.74684143
     11,  -4.96917152,  -3.70785761
     12,          -5.,  -3.74343681
     13,  -4.97094584,  -3.81646514
     14,  -4.82628727,  -3.82892227
     15,  -4.76903439,   -3.8388567
     16,  -4.74067926,  -3.69630599
     17,  -4.81562376,  -3.75703716
     18,  -4.79759979,  -3.83353806
     19,  -4.82095528,  -3.79297972
     20,  -4.85507917,  -3.82501197
** ... 2243 like lines cut
*Element, type=CPE8
1,  1,  2,  3,  4,  7,  8,  9, 10
2,  1,  5,  6,  2, 11, 12, 13,  7
3,  4,  3, 14, 17,  9, 20, 19, 21
  4,    6,   40,  113,    2,  578,  579,  580,   13
  5,   40,   41,  114,  113,  581,  582,  583,  579
  6,   41,   42,  115,  114,  584,  585,  586,  582
  7,   42,   43,  116,  115,  587,  588,  589,  585
  8,   43,   44,  117,  116,  590,  591,  592,  588
  9,   44,   45,  118,  117,  593,  594,  595,  591
 10,   45,   46,  119,  118,  596,  597,  598,  594
 11,   46,   47,  120,  119,  599,  600,  601,  597
 12,   47,   48,  121,  120,  602,  603,  604,  600
 13,   48,   49,  122,  121,  605,  606,  607,  603
 14,   49,   50,  123,  122,  608,  609,  610,  606
 15,   50,   51,  124,  123,  611,  612,  613,  609
 16,   51,   52,  125,  124,  614,  615,  616,  612
 17,   52,   53,  126,  125,  617,  618,  619,  615
 18,   53,   54,  127,  126,  620,  621,  622,  618
 19,   54,   22,   55,  127,  623,  624,  625,  621
 20,    2,  113,  128,    3,  580,  626,  627,    8
** ... 700 like lines cut
*End Part
**  
**
** ASSEMBLY
**
*Assembly, name=Assembly
**  
*Instance, name=Part-1-1, part=Part-1
*End Instance
**  
*End Assembly
** 
** MATERIALS
** 
*Material, name=Material-1
*Elastic
210000., 0.3
** ----------------------------------------------------------------
** 
** STEP: Step-1
** 
*Step, name=Step-1, nlgeom=NO
*Static
1., 1., 1e-05, 1.
** 
** OUTPUT REQUESTS
** 
*Restart, write, frequency=0
** 
** FIELD OUTPUT: F-Output-1
** 
*Output, field, variable=PRESELECT
** 
** HISTORY OUTPUT: H-Output-1
** 
*Output, history, variable=PRESELECT
*End Step
